732
Properties=species:S:1:pos:R:3 pbc="F F F"
He       7.16862346      -2.52000000       1.45896661
He       7.95681771      -1.68800000       1.87928149
He       3.22839347      -8.30900000       9.24800000
He       2.05691432      -8.20500000       9.84719606
He       2.81008077      -8.10100000       8.11902569
He       3.51825507      -7.99700000      10.30092129
He       4.92964795      -5.05900000      11.50374127
He       4.35241171      -4.22700000      12.18343077
He       5.32390136      -3.70700000      11.11784311
He       3.48009388      -3.39500000      12.37240609
He       4.57286102      -2.87500000      11.59570847
He       2.69487981      -2.56300000      11.93502348
He       3.62109420      -2.04300000      11.30631393
He       2.61148590      -1.73100000      10.69330981
He       1.73148590      -0.70400000       8.52630981
He       4.72409388       0.27400000       8.94040609
He       7.53957465      -0.70700000       2.07608553
He       6.32962346      -0.18700000       1.31496661
He       7.11781771       0.64500000       1.73528149
He       5.77126194       1.16500000       1.53843829
He      10.00864795       0.64100000       7.78274127
He      10.69040306       1.16100000       6.55028767
He       9.43141171       1.47300000       8.46243077
He      10.49500465       1.68100000       5.11846609
He      10.40290136       1.99300000       7.39684311
He       8.55909388       2.30500000       8.65140609
He      10.53575353       2.51300000       6.00843387
He       9.65186102       2.82500000       7.87470847
He       9.92973933       3.34500000       6.69776741
He       8.70009420       3.65700000       7.58531393
He       0.40008077      -7.46100000       7.84202569
He      -1.16439660      -7.25300000       8.71179197
He      -2.17712393      -5.90100000       9.07347820
He       7.88562346       1.56800000       2.11896661
He       8.67381771       2.40000000       2.53928149
He       7.32726194       2.92000000       2.34243829
He       9.00311515       3.23200000       3.37053975
He       6.27566652       3.44000000       2.99780604
He       7.88158186       3.75200000       3.12544005
He       8.39900905       4.06400000       4.31709673
He       7.20737201       4.27200000       4.14513840
He       8.71464795      -1.41800000       8.23774127
He       6.72784465      -1.10600000       9.19559243
He       8.13741171      -0.58600000       8.91743077
He       5.84627259      -0.27400000       9.04840809
He       7.26509388       0.24600000       9.10640609
He       9.60657465      -1.34200000       3.43108553
He      10.37840306      -1.03000000       5.54528767
He      10.18300465      -0.51000000       4.11346609
He      10.09090136      -0.19800000       6.39184311
He       9.18481771       0.01000000       3.09028149
He      10.22375353       0.32200000       5.00343387
He       3.86420102      -6.19100000      -2.40978885
He       5.61770702      -5.87900000      -2.68034776
He       4.41093631      -5.35900000      -3.14702319
He       6.49957465      -5.04700000      -2.53291447
He       5.28962346      -4.52700000      -3.29403339
He       3.84869051      -4.00700000      -3.18446234
He       6.07781771      -3.69500000      -2.87371851
He       4.73126194      -3.17500000      -3.07056171
He       6.40711515      -2.86300000      -2.04246025
He       5.28558186      -2.34300000      -2.28755995
He       6.42775353      -1.62400000       0.45243387
He       1.95420102      -5.56700000      -1.60078885
He       0.86183329      -5.04700000      -1.08200243
He       2.50093631      -4.73500000      -2.33802319
He       0.33187607      -4.52700000       0.14947820
He       1.17136510      -4.21500000      -1.91663226
He       0.33349423      -3.69500000      -0.74307289
He       1.93869051      -3.38300000      -2.37546234
He       3.22508077      -7.44400000       1.10102569
He       1.66060340      -7.23600000       1.97079197
He       2.27020102      -6.92400000       0.58221115
He       1.17783329      -6.40400000       1.10099757
He      -2.41706843      -7.89800000       8.17302506
He      -4.42905393      -7.58600000       8.01526957
He      -3.18915535      -7.06600000       8.61859243
He      -1.77958829      -6.54600000       8.34043077
He      -4.07072741      -6.23400000       8.47140809
He      -2.65190612      -5.71400000       8.52940609
He      -4.67433028      -5.40200000       7.81707208
He      -3.43712019      -4.88200000       8.09202348
He      -4.62786371      -4.57000000       6.88344357
He      -4.56508568      -9.83800000       5.40619606
He      -3.81191923      -9.73400000       3.67802569
He      -5.37639660      -9.52600000       4.54779197
He      -4.76679898      -9.21400000       3.15921115
He      -5.79663231      -9.00600000       5.58536161
He      -5.85916671      -8.69400000       3.67799757
He      -4.22006369      -8.38200000       2.42197681
He      -6.38912393      -8.17400000       4.90947820
He      -5.54963490      -7.86200000       2.84336774
He      -6.03453371      -7.65400000       6.28449944
He      -6.38750577      -7.34200000       4.01692711
He      -6.36352570      -6.82200000       5.45347790
He      -5.84415757      -6.51000000       3.30985412
He      -6.08999079      -5.99000000       4.60505162
He       6.82709388       2.64600000       8.61440609
He       6.96809420       3.99800000       7.54831393
He      -0.53593850      -1.29200000       9.10680067
He       0.55437201      -0.98000000       9.16913840
He       1.80939347      -8.61700000      11.14100000
He       0.63791432      -8.51300000      11.74019606
He       1.39108077      -8.40900000      10.01202569
He       2.09925507      -8.30500000      12.19392129
He      -0.17339660      -8.20100000      10.88179197
He       3.12676742      -7.78500000      11.81105412
He       3.16164795      -6.95300000      12.71674127
He      -1.77605393      -6.16400000      16.11226957
He      -2.89712393      -5.85200000      14.28447820
He      -0.53615535      -5.64400000      16.71559243
He      -2.54253371      -5.33200000      15.65949944
He      -1.41772741      -4.81200000      16.56840809
He       0.00109388      -4.29200000      16.62640609
He      -2.02133028      -3.98000000      15.91407208
He       1.09386102      -3.77200000      15.84970847
He      -0.78412019      -3.46000000      16.18902348
He      10.39308077      -8.04100000       1.43402569
He       9.43820102      -7.52100000       0.91521115
He       8.34583329      -7.00100000       1.43399757
He       9.98493631      -6.68900000       0.17797681
He       8.65536510      -6.16900000       0.59936774
He      10.86362346      -5.85700000       0.03096661
He       7.81749423      -5.64900000       1.77292711
He       9.42269051      -5.33700000       0.14053766
He       8.36084243      -4.81700000       1.06585412
He       9.25366652      -3.98500000       0.90980604
He      13.20839347      -8.32400000       1.97300000
He      12.79008077      -8.11600000       0.84402569
He      14.06381242      -7.80400000       1.09972911
He      11.83520102      -7.59600000       0.32521115
He      13.58870702      -7.28400000       0.05465224
He      12.38193631      -6.76400000      -0.41202319
He      14.47057465      -6.45200000       0.20208553
He      13.26062346      -5.93200000      -0.55903339
He      11.81969051      -5.41200000      -0.44946234
He      14.04881771      -5.10000000      -0.13871851
He      12.70226194      -4.58000000      -0.33556171
He      15.18525507      -6.96600000       4.51392129
He      15.75081242      -6.75800000       2.58772911
He      16.21276742      -6.44600000       4.13105412
He      16.63274312      -5.92600000       2.96530105
He      16.24764795      -5.61400000       5.03674127
He      16.15757465      -5.40600000       1.69008553
He      16.92940306      -5.09400000       3.80428767
He      16.73400465      -4.57400000       2.37246609
He      16.64190136      -4.26200000       4.65084311
He      15.73581771      -4.05400000       1.34928149
He      16.77475353      -3.74200000       3.26243387
He      16.06511515      -3.22200000       2.18053975
He      14.94358186      -2.70200000       1.93544005
He      15.46100905      -2.39000000       3.12709673
He      14.31293157      -4.99500000       7.63202506
He      15.52764795      -4.47500000       7.11974127
He      14.95041171      -3.64300000       7.79943077
He      15.92190136      -3.12300000       6.73384311
He      14.07809388      -2.81100000       7.98840609
He      16.05475353      -2.60300000       5.34543387
He      15.17086102      -2.29100000       7.21170847
He      15.44873933      -1.77100000       6.03476741
He      14.21909420      -1.45900000       6.92231393
He      14.74100905      -1.25100000       5.21009673
He      11.14784465      -4.06700000       8.67959243
He      12.55741171      -3.54700000       8.40143077
He      10.26627259      -3.23500000       8.53240809
He      11.68509388      -2.71500000       8.59040609
He      12.77786102      -2.19500000       7.81370847
He      10.89987981      -1.88300000       8.15302348
He      11.82609420      -1.36300000       7.52431393
He      10.81648590      -1.05100000       6.91130981
He       7.71069051      -3.92500000       1.44353766
He       8.59326194      -3.09300000       1.55743829
He       9.16808077      -9.10800000       3.65302569
He      10.44181242      -8.79600000       3.90872911
He       9.96670702      -8.27600000       2.86365224
He      11.32374312      -7.96400000       4.28630105
He       1.51594607     -10.67100000       6.77026957
He       0.39487607     -10.35900000       4.94247820
He       0.74946629      -9.83900000       6.31749944
He       0.39649423      -9.52700000       4.04992711
He       1.87427259      -9.31900000       7.22640809
He       0.42047430      -9.00700000       5.48647790
He       0.93984243      -8.69500000       3.34285412
He       1.27066972      -8.48700000       6.57207208
He       0.69400921      -8.17500000       4.63805162
He       1.31713629      -7.65500000       5.63844357
He       2.35891432     -14.46000000       5.06719606
He       1.54760340     -14.14800000       4.20879197
He       2.55900974     -13.94000000       6.15682114
He       1.12736769     -13.62800000       5.24636161
He       3.66793157     -13.42000000       6.55602506
He       1.06483329     -13.31600000       3.33899757
He       1.65594607     -13.10800000       6.39826957
He       0.53487607     -12.79600000       4.57047820
He       2.89584465     -12.58800000       7.00159243
He       0.88946629     -12.27600000       5.94549944
He       0.53649423     -11.96400000       3.67792711
He       5.42939347     -15.52700000       3.19400000
He       4.25791432     -15.42300000       3.79319606
He       5.01108077     -15.31900000       2.06502569
He       5.71925507     -15.21500000       4.24692129
He       3.44660340     -15.11100000       2.93479197
He       6.28481242     -15.00700000       2.32072911
He       4.45800974     -14.90300000       4.88282114
He       4.05620102     -14.79900000       1.54621115
He       6.74676742     -14.69500000       3.86405412
He       5.80970702     -14.48700000       1.27565224
He       5.56693157     -14.38300000       5.28202506
He       2.96383329     -14.27900000       2.06499757
He       4.60293631     -13.96700000       0.80897681
He       6.78164795     -13.86300000       4.76974127
He       3.27336510     -13.44700000       1.23036774
He       8.04481242     -13.51800000       1.40372911
He       8.50676742     -13.20600000       2.94705412
He       7.56970702     -12.99800000       0.35865224
He       8.92674312     -12.68600000       1.78130105
He       6.36293631     -12.47800000      -0.10802319
He       8.45157465     -12.16600000       0.50608553
He       9.22340306     -11.85400000       2.62028767
He       7.24162346     -11.64600000      -0.25503339
He       9.02800465     -11.33400000       1.18846609
He       8.02981771     -10.81400000       0.16528149
He       8.32357465      -9.72600000       0.85808553
He       9.09540306      -9.41400000       2.97228767
He       7.11362346      -9.20600000       0.09696661
He       8.90000465      -8.89400000       1.54046609
He       7.90181771      -8.37400000       0.51728149
He       8.94075353      -8.06200000       2.43043387
He       6.55526194      -7.85400000       0.32043829
He       8.23111515      -7.54200000       1.34853975
He       1.64383329      -8.63600000       2.67299757
He       4.19900974      -9.89700000       7.87582114
He       5.30793157      -9.37700000       8.27502506
He       3.29594607      -9.06500000       8.11726957
He       2.52946629      -8.23300000       7.66449944
He       6.00241171      -3.67600000      10.46543077
He       6.22286102      -2.32400000       9.87770847
He       5.27109420      -1.49200000       9.58831393
He      -3.43352570      -2.76900000      13.59247790
He      -2.58333028      -2.24900000      14.67807208
He      -1.34612019      -1.72900000      14.95302348
He      -2.53686371      -1.41700000      13.74444357
He      -0.41990580      -1.20900000      14.32431393
He      -1.42951410      -0.89700000      13.71130981
He      -2.55715757      -2.07400000       9.78085412
He      -1.66433348      -1.24200000       9.62480604
He      -1.82293850      -0.72200000      10.70980067
He       0.45900905      -0.61800000      10.94409673
He      -0.73262799      -0.41000000      10.77213840
He       0.90539347      -8.53800000      13.50800000
He      -0.26608568      -8.43400000      14.10719606
He       1.19525507      -8.22600000      14.56092129
He      -1.07739660      -8.12200000      13.24879197
He       2.22276742      -7.70600000      14.17805412
He       2.25764795      -6.87400000      15.08374127
He       2.93940306      -6.35400000      13.85128767
He      -1.62960653     -10.07200000       4.95500000
He      -2.04791923      -9.86400000       3.82602569
He      -1.33974493      -9.76000000       6.00792129
He      -0.77418758      -9.55200000       4.08172911
He      -0.31223258      -9.24000000       5.62505412
He      -1.24929298      -9.03200000       3.03665224
He       0.10774312      -8.72000000       4.45930105
He      -0.27735205      -8.40800000       6.53074127
He       0.89581242      -7.56100000       3.53872911
He       1.35776742      -7.24900000       5.08205412
He       0.42070702      -7.04100000       2.49365224
He       0.17793157      -6.93700000       6.50002506
He      -4.18052570      -2.20000000       4.57447790
He      -3.66115757      -1.88800000       2.43085412
He      -3.33033028      -1.68000000       5.66007208
He      -3.90699079      -1.36800000       3.72605162
He      -2.76833348      -1.05600000       2.27480604
He      -3.28386371      -0.84800000       4.72644357
He      -2.92693850      -0.53600000       3.35980067
He      -0.22299079       3.52200000      -0.30794838
He       1.59087981       3.73000000       1.90102348
He       0.40013629       4.04200000       0.69244357
He       2.51709420       4.25000000       1.27231393
He       0.75706150       4.35400000      -0.67419933
He       3.03900905       4.45800000      -0.43990327
He       1.50748590       4.56200000       0.65930981
He       1.84737201       4.66600000      -0.61186160
He      -0.23363490       0.98600000      -3.58663226
He       0.53369051       1.81800000      -4.04546234
He      -0.52815757       2.33800000      -3.12014588
He       1.41626194       2.65000000      -3.93156171
He      -0.77399079       2.85800000      -1.82494838
He       0.36466652       3.17000000      -3.27619396
He       1.97058186       3.48200000      -3.14855995
He      -2.35572741      -4.31900000       8.01640809
He      -2.95933028      -3.48700000       7.36207208
He       5.12300465       3.70200000       3.83746609
He       4.12481771       4.22200000       2.81428149
He       5.16375353       4.53400000       4.72743387
He       2.77826194       4.74200000       2.61743829
He       4.45411515       5.05400000       3.64553975
He       1.72666652       5.26200000       3.27280604
He       3.33258186       5.57400000       3.40044005
He       1.56806150       5.78200000       4.35780067
He       3.85000905       5.88600000       4.59209673
He       2.65837201       6.09400000       4.42013840
He       6.14290136       4.71200000       8.20784311
He       6.27575353       5.23200000       6.81943387
He       5.39186102       5.54400000       8.68570847
He       5.56611515       5.75200000       5.73753975
He       5.66973933       6.06400000       7.50876741
He       4.44458186       6.27200000       5.49244005
He       4.44009420       6.37600000       8.39631393
He       4.96200905       6.58400000       6.68409673
He       3.43048590       6.68800000       7.78330981
He       3.77037201       6.79200000       6.51213840
He       5.04876742       1.51800000       9.85505412
He       3.86893157       1.83000000      11.27302506
He       5.46874312       2.03800000       8.68930105
He       5.08364795       2.35000000      10.76074127
He       3.09684465       2.66200000      11.71859243
He       5.76540306       2.87000000       9.52828767
He       4.50641171       3.18200000      11.44043077
He       5.47790136       3.70200000      10.37484311
He       3.63409388       4.01400000      11.62940609
He       1.61166972       4.32600000      10.91707208
He       4.72686102       4.53400000      10.85270847
He       2.84887981       4.84600000      11.19202348
He       1.65813629       5.15800000       9.98344357
He       3.77509420       5.36600000      10.56331393
He       2.76548590       5.67800000       9.95030981
He       0.76291432      -0.91700000       9.85619606
He       2.22425507      -0.70900000      10.30992129
He       0.96300974      -0.39700000      10.94582114
He       2.07193157       0.12300000      11.34502506
He       0.05994607       0.43500000      11.18726957
He       1.29984465       0.95500000      11.79059243
He      -0.70653371       1.26700000      10.73449944
He       0.41827259       1.78700000      11.64340809
He      -1.03552570       2.09900000       9.90347790
He      -0.18533028       2.61900000      10.98907208
He      -0.36908568      -1.62100000       7.77819606
He       1.09225507      -1.41300000       8.23192129
He      -1.18039660      -1.30900000       6.91979197
He      -0.16899026      -1.10100000       8.86782114
He      -1.60063231      -0.78900000       7.95736161
He      -1.07205393      -0.26900000       9.10926957
He      -2.19312393       0.04300000       7.28147820
He      -1.83853371       0.56300000       8.65649944
He      -2.16752570       1.39500000       7.82547790
He      -1.93450577       2.64900000       3.25592711
He      -1.39115757       3.48100000       2.54885412
He       0.55326194       3.79300000       1.73743829
He      -1.63699079       4.00100000       3.84405162
He      -0.49833348       4.31300000       2.39280604
He      -1.01386371       4.52100000       4.84444357
He       1.10758186       4.62500000       2.52044005
He      -0.65693850       4.83300000       3.47780067
He       0.09348590       5.04100000       4.81130981
He       0.43337201       5.14500000       3.54013840
He      -2.06463231      -0.39400000       5.61436161
He      -2.12716671      -0.08200000       3.70699757
He      -2.65712393       0.43800000       4.93847820
He      -2.30253371       0.95800000       6.31349944
He      -2.65550577       1.27000000       4.04592711
He      -2.63152570       1.79000000       5.48247790
He      -2.11215757       2.10200000       3.33885412
He      -2.35799079       2.62200000       4.63405162
He       4.40411515       2.54700000       2.51753975
He       3.28258186       3.06700000       2.27244005
He       8.51864795       1.02800000       1.11974127
He       9.20040306       1.54800000      -0.11271233
He       7.94141171       1.86000000       1.79943077
He       8.91290136       2.38000000       0.73384311
He       7.06909388       2.69200000       1.98840609
He       9.04575353       2.90000000      -0.65456613
He       8.16186102       3.21200000       1.21170847
He       8.33611515       3.42000000      -1.73646025
He       8.43973933       3.73200000       0.03476741
He       7.21009420       4.04400000       0.92231393
He       7.73200905       4.25200000      -0.78990327
He       7.90125507      -1.74400000      -1.38807871
He       8.46681242      -1.53600000      -3.31427089
He       8.92876742      -1.22400000      -1.77094588
He       9.34874312      -0.70400000      -2.93669895
He       8.96364795      -0.39200000      -0.86525873
He       8.87357465      -0.18400000      -4.21191447
He       9.64540306       0.12800000      -2.09771233
He       9.45000465       0.64800000      -3.52953391
He       8.45181771       1.16800000      -4.55271851
He       9.49075353       1.48000000      -2.63956613
He       8.78111515       2.00000000      -3.72146025
He       7.65958186       2.52000000      -3.96655995
He       5.72539347      -3.11800000      -3.65400000
He       5.30708077      -2.91000000      -4.78297431
He       6.58081242      -2.59800000      -4.52727089
He       4.35220102      -2.39000000      -5.30178885
He       6.10570702      -2.07800000      -5.57234776
He       4.89893631      -1.55800000      -6.03902319
He       6.98757465      -1.24600000      -5.42491447
He       5.77762346      -0.72600000      -6.18603339
He       4.33669051      -0.20600000      -6.07646234
He       6.56581771       0.10600000      -5.76571851
He       5.21926194       0.62600000      -5.96256171
He       2.98408077      -2.57100000      -4.01397431
He       2.02920102      -2.05100000      -4.53278885
He       0.93683329      -1.53100000      -4.01400243
He       2.57593631      -1.21900000      -5.27002319
He       1.24636510      -0.69900000      -4.84863226
He       0.40849423      -0.17900000      -3.67507289
He       2.01369051       0.13300000      -5.30746234
He       0.95184243       0.65300000      -4.38214588
He      -1.97339660      -2.05500000      -1.13620803
He      -1.36379898      -1.74300000      -2.52478885
He      -2.45616671      -1.22300000      -2.00600243
He      -0.81706369      -0.91100000      -3.26202319
He      -2.14663490      -0.39100000      -2.84063226
He      -2.98450577       0.12900000      -1.66707289
He      -1.37930949       0.44100000      -3.29946234
He      -2.44115757       0.96100000      -2.37414588
He      -2.68699079       1.48100000      -1.07894838
He      -1.70693850       2.31300000      -1.44519933
He       0.32460340      -3.07100000      -0.72220803
He       0.93420102      -2.75900000      -2.11078885
He      -2.35263231      -1.33200000       1.63736161
He      -1.82405393      -0.81200000       2.78926957
He      -2.59053371       0.02000000       2.33649944
He      -2.91952570       0.85200000       1.50547790
He      -2.06933028       1.37200000       2.59107208
He      -2.02286371       2.20400000       1.65744357
He       5.62641171       2.22100000       2.57743077
He       4.75409388       3.05300000       2.76640609
He       5.84686102       3.57300000       1.98970847
He       3.96887981       3.88500000       2.32902348
He       4.89509420       4.40500000       1.70031393
He       3.88548590       4.71700000       1.08730981
He       4.22537201       4.82100000      -0.18386160
He      -0.68991923      -6.02100000       1.61702569
He       0.58381242      -5.70900000       1.87272911
He       0.10870702      -5.18900000       0.82765224
He      -1.09806369      -4.66900000       0.36097681
He      -2.42763490      -4.14900000       0.78236774
He      -0.21937654      -3.83700000       0.21396661
He      -1.66030949      -3.31700000       0.32353766
He      -0.77773806      -2.48500000       0.43743829
He      -1.21533028      -1.73100000       7.18607208
He       3.64167266      -8.69420000       0.81645938
He       8.87774912     -10.13280000       3.46154689
He       6.46150245      -9.87920000      -0.04413302
He       4.70467266      -9.24520000       0.08945938
He       5.78073090      -8.23080000       0.22833053
He       5.46718003     -12.27260000      -0.06489366
He       8.12353231     -12.14580000       4.76419224
He       4.78167266     -10.62420000      -0.11054062
He       6.43174813     -11.96940000       6.10789059
He       3.79367266     -11.46220000       0.40445938
He       4.58851273     -13.07780000       6.62078440
He       3.64716059     -12.06340000       7.16403385
He       1.79212591     -11.93660000       1.68087913
He       5.36574813     -11.42940000       6.82489059
He       0.77056796     -11.30260000       3.11171883
He       2.72767266     -10.92220000       1.12145938
He       0.69456796      -9.92560000       3.31871883
He       2.65167266      -9.54520000       1.32845938
He       1.35703480      -8.91120000       2.45663367
He       3.71873090       1.69620000      -5.15466947
He       2.43659341       2.33020000      -4.35562494
He       6.08774813       1.57860000       2.20289059
He       4.37955741       4.74860000      -1.16376203
He       6.62151273      -0.27180000       1.56378440
He       7.87998271       3.27860000      -2.54317654
He       6.51257480       3.91260000      -2.84200963
He       7.14343796       4.29300000      -1.38910514
He       5.69055741       4.54660000      -1.59876203
He       5.52048111      -1.70380000      -0.03793730
He       5.64582204      -3.06260000      -2.77700000
He       4.21751861      -2.93580000      -2.04644172
He       5.99923022      -2.68220000      -1.49324596
He       3.95267266       0.48780000      -5.73054062
He       6.67049313       0.86820000      -5.35167218
He       5.02873090       1.50220000      -5.59166947
He       5.70457480       2.51660000      -4.63700963
He      11.14480233      -8.09400000       1.85151978
He      11.03773090      -3.78280000       0.41333053
He       9.75559341      -3.14880000       1.21237506
He      13.00782204      -8.39260000       2.89100000
He      13.36123022      -8.01220000       4.17475404
He      11.31467266      -4.84220000      -0.06254062
He      12.39073090      -3.82780000       0.07633053
He      13.06657480      -2.81340000       1.03099037
He      12.77048111      -7.04280000       5.78606270
He      13.19155741      -1.59040000       3.11023797
He      13.90323022      -6.78320000       6.17975404
He      13.71751273      -5.76880000       7.44178440
He      13.60857480      -1.58440000       3.03599037
He      14.23943796      -1.20400000       4.48889486
He      12.78655741      -0.95040000       4.27923797
He      11.43255741      -0.89740000       4.61523797
He      11.29557480      -2.12940000       2.54299037
He      -0.63669261       2.93680000      -0.98922167
He       0.55821729       3.95120000      -1.43576610
He      -2.23526479      -6.22500000      10.64048550
He      -2.87943204      -4.57660000      11.05371883
He       2.32332449      -2.42100000      12.61535873
He       0.57004310       5.43780000       6.84448696
He       1.00521729       5.81820000       5.17823390
He       2.33455741       6.19860000       5.25423797
He       1.20204310       5.83380000       8.02348696
He       1.63721729       6.21420000       6.35723390
He       2.55215780       6.46780000       7.98308926
He       0.06730739       4.63380000       8.01977833
He       2.69723022      -0.76320000       9.58975404
He       3.95000489      -0.12920000       9.12295060
He      -0.24061038       3.29440000      10.41779557
He      -0.18395690       4.30880000       9.27948696
He      -1.91519480       2.26640000       7.91720575
He      -1.58169261       3.28080000       6.88277833
He      -0.82195690       3.91480000       8.10248696
He      -0.44495690       4.47180000       6.87348696
He       0.93073521      -5.61000000       0.77448550
He      -1.10895690       4.03580000       5.58748696
He      -2.33284236      -6.62800000      11.89725099
He      -0.76980853      -2.87640000       0.70520767
He      -1.72465908      -2.50920000      -0.30506791
He      -2.82584236      -5.09500000      10.74225099
He      -3.44956124      -4.48300000      12.19160896
He      -2.46154723      -4.11580000       9.75995588
He      -3.44765679      -3.50380000      11.14114499
He       1.24752105      -2.03500000      14.03376458
He      -3.09750454      -1.91260000      11.83332230
He       1.57456244      -1.42300000      12.64859549
He       0.12736471      -1.05580000      13.69316948
He      -1.06086660      -0.68860000      12.97171077
He      10.48709271      -9.53900000       7.23600000
He      10.81039989      -9.19100000       8.41041221
He      11.44121386      -8.95900000       6.26196708
He       9.40362625      -8.84300000       9.11968512
He      11.95647135      -8.61100000       7.98336806
He      10.64050060      -8.26300000       9.56495102
He      12.42490579      -8.03100000       6.68310502
He       8.39636292      -7.91500000       9.38899299
He      11.99537656      -7.68300000       8.99355757
He       9.77932673      -7.33500000      10.06193002
He      12.75579572      -7.10300000       7.61889779
He      11.35153614      -6.75500000       9.75167278
He      12.43512075      -6.17500000       8.56313270
He      10.37856626      -5.82700000       9.96245295
He      11.59742191      -5.24700000       9.09613637
He       6.25839989      -8.60700000       8.97741221
He       4.85162625      -8.25900000       9.68668512
He       6.08850060      -7.67900000      10.13195102
He       7.55279572      -4.90800000       0.58789779
He       7.60362625      -7.59200000       9.56368512
He       8.84050060      -7.01200000      10.00895102
He       7.97932673      -6.08400000      10.50593002
He       9.55153614      -5.50400000      10.19567278
He      10.63512075      -4.92400000       9.00713270
He       8.57856626      -4.57600000      10.40645295
He       9.79742191      -3.99600000       9.54013637
He       7.82109271     -10.87700000       6.05700000
He       6.51444289     -10.76100000       6.72533407
He       8.14439989     -10.52900000       7.23141221
He       8.77521386     -10.29700000       5.08296708
He       6.73762625     -10.18100000       7.94068512
He       9.29047135      -9.94900000       6.80436806
He       7.97450060      -9.60100000       8.38595102
He       9.75890579      -9.36900000       5.50410502
He       5.73036292      -9.25300000       8.20999299
He       7.11332673      -8.67300000       8.88293002
He      -3.90391486      -7.74800000       1.83791333
He      -1.68505535      -7.35320000       1.49555226
He      -5.28618018      -7.09000000       2.49437770
He      -3.21208444      -6.69520000       0.90502834
He      -4.89450339      -6.03720000       1.43824995
He      -5.95473230      -5.37920000       2.92325392
He      -3.92354162      -4.98440000       0.85765343
He      -5.92438829      -4.72120000       4.74104319
He      -5.26718785      -4.32640000       2.02853463
He      -4.84856408      -4.06320000       6.11473736
He      -5.57826142      -3.66840000       3.66745763
He      -4.13742198      -3.27360000       1.83107380
He      -4.78976600      -3.01040000       4.93333820
N        0.00000000       0.00000000       0.00000000
C        1.46200000       0.00000000       0.00000000
C        1.90200000       0.00000000       1.47300000
O        2.85200000      -0.66400000       1.88900000
C        2.02000000       1.22500000      -0.74300000
C        3.44200000       1.03700000      -1.21900000
C        4.51200000       1.64200000      -0.54700000
C        5.82300000       1.44000000      -0.98200000
C        6.07400000       0.64200000      -2.09700000
C        5.01500000       0.04400000      -2.77700000
C        3.70500000       0.23800000      -2.34000000
H       -0.46700000       0.28000000       0.85900000
H        1.79000000      -0.93900000      -0.46300000
H        1.95600000       2.11800000      -0.10600000
H        1.40500000       1.45400000      -1.62300000
H        4.33400000       2.27300000       0.32200000
H        6.64900000       1.91200000      -0.45600000
H        7.09400000       0.49200000      -2.44100000
H        5.20800000      -0.57000000      -3.65400000
H        2.88500000      -0.23100000      -2.88500000
H       -0.50800000       0.07700000      -0.87700000
N        1.24200000       0.74600000       2.37000000
C        1.66100000       0.74600000       3.77100000
C        1.54100000      -0.70500000       4.26600000
O        2.37000000      -1.23000000       5.00900000
C        0.78800000       1.69000000       4.61400000
C        1.45200000       2.12600000       5.90000000
C        1.07500000       1.56900000       7.12900000
C        1.71300000       1.96300000       8.30600000
C        2.72400000       2.92200000       8.26600000
C        3.09900000       3.48800000       7.05000000
C        2.46700000       3.09200000       5.87100000
H        0.70200000      -0.05100000       2.04400000
H        2.71700000       1.03900000       3.79800000
H       -0.17900000       1.21800000       4.83600000
H        0.54200000       2.59700000       4.04600000
H        0.28500000       0.82300000       7.17900000
H        1.41700000       1.52700000       9.25700000
H        3.21400000       3.23400000       9.18500000
H        3.87900000       4.24400000       7.01800000
H        2.76700000       3.54600000       4.92600000
N        0.49900000      -1.45900000       3.88800000
C        0.38600000      -2.83500000       4.35700000
C        1.64000000      -3.57000000       3.85700000
O        2.25400000      -4.39300000       4.53300000
C       -0.89800000      -3.48300000       3.82200000
C       -1.25100000      -4.77400000       4.55800000
S       -2.82100000      -5.44500000       3.92300000
C       -2.99800000      -6.84500000       5.05300000
H        0.38700000      -2.82300000       5.45400000
H       -0.78900000      -3.68100000       2.74600000
H       -1.72800000      -2.77200000       3.92800000
H       -1.35700000      -4.57900000       5.63000000
H       -0.47700000      -5.53300000       4.41200000
H       -2.14700000      -7.52400000       4.95500000
H       -3.91100000      -7.39400000       4.80700000
H       -3.07200000      -6.49400000       6.08500000
H        1.00700000      -1.29800000       3.02300000
N        2.11400000      -3.32600000       2.62700000
C        3.30600000      -4.02500000       2.15100000
C        4.45400000      -3.66800000       3.11200000
O        5.29300000      -4.48400000       3.48900000
H        3.12600000      -5.10400000       2.23000000
C        3.67400000      -3.64700000       0.71000000
H        2.81000000      -3.74700000       0.04700000
H        4.03100000      -2.61200000       0.65100000
O        4.70700000      -4.50200000       0.20500000
H        4.72000000      -4.37100000      -0.76200000
H        2.23200000      -2.72000000       3.43600000
N        4.57400000      -2.41700000       3.57700000
C        5.66300000      -2.07900000       4.48900000
C        5.49300000      -2.97400000       5.73200000
O        6.44000000      -3.49900000       6.31500000
C        5.69600000      -0.56100000       4.80800000
C        6.94300000      -0.17700000       5.63000000
C        7.21000000       1.32200000       5.66300000
H        6.59900000      -2.36400000       3.99100000
C        4.40700000      -0.08400000       5.49100000
H        7.82700000      -0.66600000       5.20200000
H        6.84500000      -0.53400000       6.66200000
H        6.40700000       1.86600000       6.17000000
H        7.31600000       1.72400000       4.65100000
H        8.13900000       1.52500000       6.20700000
H        3.72800000      -2.80300000       3.98900000
H        5.76000000      -0.03100000       3.84700000
H        4.39000000       1.00700000       5.58400000
H        4.30400000      -0.50600000       6.49600000
H        3.52100000      -0.36400000       4.91200000
N        4.27000000      -3.21000000       6.22500000
C        4.10900000      -4.05900000       7.40200000
C        4.68800000      -5.43500000       7.02600000
O        5.35800000      -6.11300000       7.80300000
C        2.63000000      -4.14700000       7.80500000
H        2.08000000      -4.76400000       7.08200000
H        2.18000000      -3.14800000       7.76100000
C        2.42000000      -4.70600000       9.21200000
H        3.06000000      -4.17500000       9.92800000
H        2.71100000      -5.76100000       9.24800000
C        0.96500000      -4.58000000       9.65200000
H        0.30100000      -5.12100000       8.97100000
H        0.66300000      -3.52800000       9.67500000
N        0.83600000      -5.17400000      10.98300000
H        1.29200000      -6.06900000      11.14100000
C        0.14000000      -4.64000000      12.01700000
N       -0.04000000      -5.09800000      13.22600000
H       -0.41900000      -5.07200000      14.18200000
H        0.38800000      -5.99000000      13.50800000
N       -0.53300000      -3.56500000      12.07100000
H       -0.62400000      -2.95800000      11.27800000
H       -0.98100000      -3.34100000      12.94600000
H        4.44500000      -3.67600000       5.33700000
H        4.71000000      -3.62400000       8.21000000
N        4.46900000      -5.94300000       5.80500000
C        5.01900000      -7.24900000       5.44800000
C        6.54600000      -7.13700000       5.58600000
O        7.24400000      -8.03500000       6.05700000
C        4.62200000      -7.64900000       4.01700000
C        4.70400000      -9.13800000       3.77000000
C        5.76700000      -9.68900000       3.04300000
C        5.84400000     -11.06800000       2.84300000
C        4.85600000     -11.90600000       3.35800000
C        3.79000000     -11.36600000       4.07500000
C        3.71400000      -9.98900000       4.28200000
H        5.10500000      -5.15000000       5.79600000
H        4.65300000      -7.97300000       6.18700000
H        5.24400000      -7.11600000       3.28600000
H        3.59200000      -7.33600000       3.80200000
H        6.54400000      -9.05000000       2.62900000
H        6.67200000     -11.49000000       2.27700000
H        4.91200000     -12.97900000       3.19400000
H        3.01300000     -12.01600000       4.46800000
H        2.87300000      -9.57900000       4.84000000
N        7.17500000      -6.02400000       5.18400000
C        8.62700000      -5.91800000       5.31600000
C        8.94500000      -6.06000000       6.81300000
O        9.91000000      -6.69700000       7.23600000
C        9.14000000      -4.57500000       4.76800000
C       10.60600000      -4.60200000       4.40300000
C       11.56500000      -4.00400000       5.23200000
C       12.91900000      -4.05700000       4.89600000
C       13.32400000      -4.69700000       3.72700000
C       12.37700000      -5.28600000       2.89100000
C       11.02400000      -5.24100000       3.22800000
H        6.61900000      -5.88300000       6.02300000
H        9.06900000      -6.76800000       4.78200000
H        8.95100000      -3.77100000       5.49100000
H        8.58200000      -4.28900000       3.86600000
H       11.26500000      -3.49500000       6.14600000
H       13.65800000      -3.59100000       5.54400000
H       14.37800000      -4.73000000       3.46100000
H       12.69100000      -5.77600000       1.97300000
H       10.29400000      -5.70100000       2.56300000
O        8.11000000      -5.44600000       7.68000000
H        7.27600000      -4.89600000       7.31400000
